 7
VCN C2 pyramidalization MECI
N       1.528629   -3.037786   -2.054121
C      -1.627841   -2.059672   -0.822326
C      -0.748496   -3.157676   -0.788411
C       0.513430   -3.082754   -1.467357
H      -0.951497   -4.145892   -0.382845
H      -2.419967   -2.027722   -0.079428
H      -2.117721   -2.967584   -1.431211
