 12
1-AmBD C2 transoid MECI
C      -1.583768    0.496812   -0.370855
C      -0.115389    0.695145   -0.462713
C       0.423142   -0.541702   -0.047954
C       1.446672   -0.561590    0.982964
N      -2.297121    0.694074    0.778245
H      -2.042217   -0.200173   -1.054127
H       0.322152    1.619791   -0.128783
H       0.058946   -1.448989   -0.504678
H       1.308508    0.061753    1.851723
H       2.473183   -0.738152    0.692412
H      -3.217759    0.325373    0.855008
H      -2.115449    1.507539    1.322734
