 12
1-AmBD C3 pyramidalization MECI
C      -1.863710   -0.473611   -0.136732
C      -0.579957   -0.036182    0.016816
C       0.623053   -0.838377    0.017915
C       1.268691   -1.555228    1.051547
N      -3.005111    0.353869   -0.243142
H      -2.083530   -1.529240   -0.172899
H      -0.411081    1.033302    0.015484
H       0.230998   -1.963453    0.029715
H       0.751469   -1.982410    1.908541
H       2.286576   -1.893383    0.924671
H      -3.562318    0.128939   -1.044049
H      -2.762627    1.323972   -0.292725
