 12
1-AmBD C4 pyramidalization MECI
C       3.463886    0.006522    0.264625
C       1.312275   -1.438741    0.060551
C      -1.045252   -0.179286   -0.033500
C      -3.640641   -1.096274   -0.225220
N       5.822338   -0.832209    0.401855
H       3.271526    2.031701    0.326796
H       1.409983   -3.474193   -0.007505
H      -0.762414    1.870770    0.056917
H      -3.392728   -2.657704    1.225174
H      -3.191885   -2.522143   -1.768597
H       6.208095   -2.675214    0.353851
H       7.278420    0.347856    0.542297
