 12
1-AmBD C2 pyramidalization MECI
C       1.313533   -1.604800    1.100379
C       0.332000   -1.602545    0.040612
C      -0.530090   -0.431301    0.115851
C      -1.854333   -0.330240   -0.206813
N       2.577108   -1.489544    0.837305
H       1.116359   -1.666004    2.171810
H      -0.218622   -2.540450    0.055009
H      -0.035917    0.499320    0.379372
H      -2.431474   -1.191608   -0.507018
H      -2.339869    0.630220   -0.250109
H       2.830092   -1.421344   -0.130871
H       3.287621   -1.463836    1.540304
