 16
1-AmCHD S0 minimum
C       1.222169    0.638144   -0.206346
C      -1.153786   -0.692629    0.284309
C       3.445494   -0.636087   -0.206394
C      -1.251123   -3.251373    0.152055
C       3.520657   -3.406119    0.474917
C       1.074263   -4.733042   -0.575237
N       5.746192   -4.620976   -0.583425
H       1.177895    2.641275   -0.572712
H      -2.829553    0.388593    0.698987
H       5.201629    0.318743   -0.600331
H      -3.002133   -4.240718    0.470061
H       0.997683   -6.654597    0.140688
H       3.426449   -3.560538    2.534849
H       1.263329   -4.820906   -2.620156
H       5.772752   -6.460830   -0.130843
H       7.324504   -3.861418    0.140640
