 16
1-AmCHD S0 minimum
C       0.646744    0.337691   -0.109194
C      -0.610557   -0.366524    0.150450
C       1.823277   -0.336603   -0.109219
C      -0.662066   -1.720552    0.080464
C       1.863051   -1.802441    0.251315
C       0.568476   -2.504618   -0.304403
N       3.040754   -2.445315   -0.308735
H       0.623315    1.397703   -0.303066
H      -1.497335    0.205635    0.369888
H       2.752583    0.168672   -0.317681
H      -1.588660   -2.244091    0.248746
H       0.527951   -3.521461    0.074449
H       1.813199   -1.884156    1.341384
H       0.668525   -2.551114   -1.386527
H       3.054809   -3.418924   -0.069239
H       3.875961   -2.043374    0.074424
