 16
1-AmCHD C5 pyramidalization MECI
C       0.708947   -1.246717   -0.151799
C       1.395990    0.025098   -0.116430
C      -0.657544   -1.262761   -0.054043
C       0.768030    1.279319    0.164102
C      -1.458253   -0.043749    0.319434
C      -0.749031    1.268291   -0.111611
N      -2.828632   -0.206588   -0.140219
H       1.252498   -2.139428   -0.417073
H       2.455102   -0.000716   -0.348705
H      -1.206132   -2.178613   -0.200543
H       0.661158    0.662772    1.208210
H      -1.493251   -0.019566    1.410368
H      -0.869015    1.420168   -1.184539
H      -1.242534    2.101040    0.376890
H      -2.877620   -0.107777   -1.137399
H      -3.417589    0.504100    0.250120
