 16
1-AmCHD C3 pyramidalization MECI
C       1.426475    0.012780    0.246794
C       0.691988   -1.235382   -0.175678
C       0.741776    1.230767   -0.019117
C      -0.661485   -1.232187   -0.222230
C      -0.765984    1.314226   -0.069390
C      -1.411675   -0.027336    0.312385
N      -1.293479    2.377826    0.771465
H       0.803791    0.147229    1.277417
H       1.266849   -2.097104   -0.470638
H       1.285212    2.148508   -0.215341
H      -1.216802   -2.087188   -0.572717
H      -0.952337    1.491326   -1.138089
H      -1.429454   -0.077519    1.401150
H      -2.447103   -0.033881   -0.014123
H      -2.289864    2.439400    0.677731
H      -0.919904    3.268261    0.501750
