 16
1-AmCHD C2 pyramidalization MECI
C       2.639694   -0.023889   -0.206338
C       1.348155   -2.432653   -0.203806
C       1.476446    2.376984    0.244668
C      -1.238029   -2.449586   -0.116923
C      -1.425248    2.395152   -0.280817
C      -2.732040   -0.118027    0.506138
N      -1.979833    2.962016   -2.904004
H       4.640511   -0.098898   -0.649438
H       2.389161   -4.134778   -0.617245
H       1.205501    1.323949    2.243796
H      -2.240911   -4.199035   -0.410296
H      -2.921547   -0.046306    2.558851
H      -2.280789    3.878662    0.833826
H      -4.627109   -0.245276   -0.267009
H      -1.163178    1.681535   -4.041139
H      -1.201544    4.632053   -3.347390
