 16
1-AmCHD C1 ring-closure MECI
C       0.397027   -0.701363    1.183502
C       0.225281    0.707017    1.162330
C       0.009696   -1.464399    0.098550
C       0.227073    1.391173   -0.077938
C      -0.923559   -0.795739   -0.790686
C       0.412430    0.919145   -1.397975
N      -1.363100   -1.398372   -1.886406
H       0.830987   -1.187922    2.047492
H       0.210922    1.272959    2.076674
H       0.237158   -2.501950   -0.054492
H      -0.033776    2.441752   -0.001545
H      -1.601923   -0.100313   -0.332319
H       1.044511    0.061490   -1.572876
H       0.423753    1.667156   -2.176628
H      -2.053634   -0.949404   -2.445499
H      -0.754247   -2.020171   -2.372712
