 16
1-AmCHD C4 pyramidalization MECI
C       1.360315   -2.292442   -0.294043
C       2.734251    0.084833    0.512396
C      -1.193792   -2.326342   -0.433184
C       1.400670    2.349385   -0.048264
C      -2.705851   -0.090875    0.533759
C      -1.440908    2.453008   -0.150716
N      -5.326907   -0.284088   -0.260735
H       2.473455   -3.917781   -0.804367
H       1.535473    0.300704    2.444356
H      -2.228622   -3.954134   -1.085704
H       2.401279    4.083814   -0.478531
H      -2.713221   -0.227158    2.589022
H      -1.852821    2.927974   -2.119651
H      -2.234794    3.978518    0.979099
H      -5.476432   -0.096650   -2.140556
H      -6.383507    1.076472    0.526080
