 16
1-AmCHD C4 transoid MECI
C      -0.787031   -0.797013    0.599721
C       0.987961    1.167374    1.260165
C      -0.381337   -3.185344   -0.542123
C       3.058544   -0.460740    2.022735
C       2.024692   -4.467563   -0.308602
C       4.416402   -1.921062    0.225160
N       2.788987   -5.994310   -2.446307
H      -2.714260   -0.356718    1.115779
H       0.248622    2.362472    2.743745
H      -1.567619   -3.693138   -2.114207
H       3.374860   -0.890021    3.999111
H       2.364637   -5.395214    1.484263
H       4.599971   -1.122935   -1.638541
H       6.042428   -2.950126    0.898466
H       2.400273   -7.818408   -2.107887
H       4.656490   -5.882520   -2.727574
