 16
3-AmHT S0 minimum
C       0.575295    0.443263   -0.085149
C      -0.590810   -0.272596   -0.011843
C       1.854166   -0.258934   -0.047426
C      -1.942101    0.248717   -0.053910
C       3.074200    0.326108    0.033741
C      -3.055200   -0.517316    0.071230
N       0.643037    1.855330   -0.139666
H      -0.496000   -1.340131    0.113981
H       1.798117   -1.335353   -0.095056
H      -2.082436    1.308936   -0.202876
H       3.192616    1.392242    0.113314
H      -2.991386   -1.582488    0.225208
H       3.968540   -0.272490    0.045950
H      -4.039575   -0.085257    0.022008
H      -0.252141    2.292856   -0.194600
H       1.204503    2.172279   -0.904463
