 16
3-AmHT S0 minimum
C       1.087150    0.837646   -0.160908
C      -1.116469   -0.515131   -0.022380
C       3.503867   -0.489314   -0.089621
C      -3.670038    0.470007   -0.101875
C       5.809397    0.616255    0.063762
C      -5.773492   -0.977585    0.134606
N       1.215164    3.506065   -0.263931
H      -0.937305   -2.532481    0.215393
H       3.397948   -2.523451   -0.179630
H      -3.935234    2.473531   -0.383380
H       6.033170    2.630955    0.214133
H      -5.652900   -2.990468    0.425582
H       7.499453   -0.514931    0.086833
H      -7.633690   -0.161112    0.041589
H      -0.476477    4.332870   -0.367740
H       2.276180    4.105012   -1.709188
