 16
3-AmHT C1 pyramidalization MECI
C       1.040337    0.895488   -0.375222
C      -1.145269   -0.499226   -0.217764
C       3.376273   -0.491524   -0.017431
C      -3.647508    0.524227    0.153523
C       5.910531    0.380117    0.340952
C      -5.752802   -0.937374    0.145785
N       1.056179    3.529728   -0.373983
H      -0.970007   -2.524548   -0.351213
H       3.071763   -2.516836   -0.167310
H      -3.817943    2.527459    0.475831
H       5.393808    1.233373   -1.651902
H      -5.650467   -2.948504   -0.157921
H       5.971124    2.255885    1.238057
H      -7.597524   -0.135288    0.439412
H      -0.103223    4.311492   -1.639406
H       2.800919    4.240360   -0.515575
