 16
3-AmHT C3 pyramidalization MECI
C       0.719593    0.046335   -0.067360
C      -0.600271   -0.584781   -0.050167
C       1.647996   -0.315027    1.032760
C      -1.382659   -0.839304   -1.229937
C       2.980042   -0.435308    0.880871
C      -2.638921   -1.366727   -1.184768
N      -0.105564    1.237394    0.232782
H      -1.061433   -0.881713    0.890901
H       1.239168   -0.496240    2.030762
H      -0.914277   -0.618088   -2.174961
H       3.437766   -0.278182   -0.081136
H      -3.119044   -1.590764   -0.246327
H       3.624861   -0.692458    1.706086
H      -3.185672   -1.592385   -2.083699
H      -0.126417    1.960410   -0.454841
H      -0.152673    1.574840    1.175516
