 16
3-AmHT C5 pyramidalization MECI
C      -0.585542   -0.499910   -0.043178
C       0.616766    0.159105   -0.023805
C      -1.830623    0.224167    0.059770
C       1.900010   -0.473206   -0.187345
C      -3.090567   -0.284499    0.082448
C       3.078978   -0.423073    0.549676
N      -0.557934   -1.921972   -0.121216
H       0.620994    1.236942    0.015434
H      -1.724044    1.295944    0.139280
H       1.886326   -1.358797    0.605819
H      -3.303262   -1.339205    0.026381
H       3.123879   -0.300441    1.629558
H      -3.941535    0.368899    0.164375
H       4.031461   -0.657516    0.092312
H       0.021921   -2.215368   -0.887304
H      -1.466167   -2.315648   -0.253843
