 16
3-AmHT C6 pyramidalization MECI
C      -1.124090   -0.833567   -0.221548
C       1.025785    0.635245   -0.229214
C      -3.575824    0.454061   -0.123001
C       3.559410   -0.296111   -0.014646
C      -5.814179   -0.665789    0.396971
C       5.926622    1.016662    0.179641
N      -1.157445   -3.430686   -0.163078
H       0.766452    2.654764   -0.156870
H      -3.527385    2.458835   -0.466926
H       3.684809   -2.346306   -0.165023
H      -5.978372   -2.642581    0.842308
H       5.063413    1.885214   -1.677261
H      -7.526280    0.428665    0.434147
H       5.616325    2.853174    1.129212
H       0.466688   -4.324795   -0.483611
H      -2.616416   -4.255854   -1.017636
