 16
3-AmHT C2 transoid MECI
C       0.538263    0.673216    0.322211
C      -0.618065   -0.100130    0.614315
C       1.666416   -0.088722   -0.209892
C      -1.739912   -0.019897   -0.287478
C       2.776795   -0.164744    0.599132
C      -3.006557   -0.496059   -0.160398
N       0.672432    1.927258    0.521796
H      -0.660195   -0.464593    1.624145
H       1.391444   -0.870064   -0.893134
H      -1.525632    0.477894   -1.232159
H       3.413366   -1.032129    0.586970
H      -3.340417   -1.007450    0.730014
H       2.957290    0.558846    1.376608
H      -3.719269   -0.371693   -0.958170
H      -0.086396    2.412073    0.963339
H       1.499207    2.433976    0.258309
