 16
3-AmHT C2 pyramidalization MECI
C       0.672155    0.413172   -0.044190
C      -0.513868   -0.305344    0.015042
C       1.941669   -0.201313   -0.281753
C      -1.845291    0.238140   -0.009751
C       2.903956   -0.791988    0.569493
C      -2.981165   -0.508581    0.061894
N       0.692451    1.824138    0.009545
H      -0.433451   -1.380425    0.072621
H       1.741421   -1.361516   -0.232924
H      -1.961737    1.309774   -0.071500
H       2.654938   -1.265871    1.514732
H      -2.944442   -1.583986    0.133508
H       3.894166   -1.007398    0.198092
H      -3.954419   -0.049392    0.051930
H      -0.115621    2.258747   -0.383990
H       1.508964    2.192041   -0.431964
