 16
3-AmHT C4 transoid MECI
C      -0.350463   -0.715034    0.529232
C       0.462540    0.493834    0.361817
C      -1.297910   -0.818549    1.601231
C       1.635795   -0.008897    0.982495
C      -2.154221   -1.862680    1.842602
C       2.204966    0.676405    2.132419
N      -0.142580   -1.796702   -0.385933
H       0.074269    1.438285    0.707663
H      -1.377900    0.050797    2.235919
H       2.090431   -0.904833    0.590252
H      -2.148629   -2.768659    1.261382
H       1.551227    1.008303    2.919829
H      -2.880052   -1.800390    2.633728
H       3.139310    1.205678    2.024369
H      -0.985709   -2.323654   -0.498193
H       0.560719   -2.435098   -0.066979
