 15
3-CNCHD C3 transoid MECI
C       0.872490    0.853822    1.449414
C      -1.051269   -0.848798    0.453135
C       3.123309   -0.673162    1.959760
C      -0.496348   -3.223504   -0.534656
C       4.594299   -1.638620    0.042037
C       1.998309   -4.229069   -0.055622
C       0.138223    2.680018    3.280517
N      -0.396626    4.207754    4.707230
H      -2.944987   -0.097026    0.429496
H       3.501757   -1.356799    3.848673
H      -1.439707   -3.794399   -2.245271
H       4.503707   -0.782587   -1.795306
H       2.353915   -5.135310    1.727711
H       6.248801   -2.733944    0.478320
H       2.888488   -5.292870   -1.558414
