 15
3-CNCHD C6 ring-closure MECI
C       0.763715    1.265359    2.150513
C       0.804210   -1.411436    2.322254
C       0.160391    2.424865   -0.257955
C      -0.388779   -2.753125    0.408612
C       0.785028    1.627583   -2.715078
C      -1.856297   -1.246111   -1.313997
C       0.943126    2.836409    4.335601
N       1.099078    4.104945    6.069961
H       1.714445   -2.342243    3.888849
H      -0.898342    4.171702   -0.157363
H       0.088611   -4.670210   -0.067780
H       2.148935    0.165673   -3.064222
H      -3.371740   -0.118866   -0.553160
H       0.149632    2.742653   -4.289099
H      -2.181399   -1.890106   -3.219231
