 15
3-CNCHD C4 transoid MECI
C      -0.778226   -0.808191    0.650054
C       1.008636    1.179558    1.173146
C      -0.350547   -3.208371   -0.532623
C       3.030854   -0.521520    1.993677
C       2.128241   -4.387947   -0.342841
C       4.389027   -1.967512    0.179101
C      -3.361388   -0.311964    1.424526
N      -5.383140    0.090962    2.026667
H       0.326032    2.498938    2.566647
H      -1.601607   -3.727534   -2.047793
H       3.156835   -1.104087    3.949832
H       2.486739   -5.485431    1.339632
H       4.655967   -1.064362   -1.626390
H       2.736417   -5.452142   -1.987831
H       6.007883   -3.006148    0.852354
