 15
3-CNCHD C2 pyramidalization MECI
C       2.622247    0.029774   -0.140506
C       1.318111   -2.386946   -0.284625
C       1.436207    2.411198    0.297111
C      -1.262015   -2.399077   -0.173228
C      -1.423985    2.410158   -0.220808
C      -2.756903   -0.082592    0.540117
C       5.328045   -0.025768   -0.641820
N       7.444970   -0.107043   -0.985739
H       2.371351   -4.062322   -0.756782
H       1.215786    1.147772    2.244101
H      -2.257740   -4.144801   -0.499908
H      -1.619067    2.762084   -2.236515
H      -2.949989   -0.066625    2.594469
H      -2.333378    3.971307    0.737873
H      -4.658677   -0.209857   -0.221242
