 15
3-CNCHD C2 pyramidalization MECI
C       1.387633    0.015756   -0.074353
C       0.697515   -1.263118   -0.150617
C       0.760008    1.275951    0.157225
C      -0.667830   -1.269537   -0.091668
C      -0.753540    1.275401   -0.116847
C      -1.458890   -0.043706    0.285818
C       2.819480   -0.013636   -0.339637
N       3.939709   -0.056645   -0.521631
H       1.254865   -2.149688   -0.400472
H       0.643366    0.607375    1.187527
H      -1.194744   -2.193334   -0.264540
H      -0.856773    1.461632   -1.183513
H      -1.561067   -0.035256    1.372934
H      -1.234770    2.101525    0.390466
H      -2.465266   -0.111052   -0.117076
