 15
3-CNCHD C1 ring-closure MECI
C       0.421636   -0.733509    1.230449
C       0.417940    0.669419    1.141854
C      -0.218277   -1.460736    0.219435
C       0.069415    1.255149   -0.128624
C      -0.960086   -0.632007   -0.700647
C       0.412391    0.852990   -1.440257
C       1.026949   -1.405794    2.363529
N       1.502470   -1.931545    3.250880
H       0.463108    1.294859    2.014557
H       0.057132   -2.465013   -0.046552
H      -0.525220    2.159350   -0.080986
H      -1.790941   -0.067516   -0.306449
H       1.157853    0.102620   -1.628090
H      -1.112596   -0.968219   -1.713203
H       0.054176    1.434845   -2.269551
