 15
3-CNCHD C3 pyramidalization MECI
C       1.315563    0.205244    0.707744
C       0.569219   -1.002368    0.052719
C       0.594891    0.889188   -0.287909
C      -0.767049   -1.181921   -0.124445
C      -0.895971    1.179457   -0.353428
C      -1.653777   -0.010635    0.210758
C       1.229993    0.272249    2.104766
N       1.221221    0.331481    3.267145
H       1.258948   -1.732044   -0.337913
H       1.145871    1.324516   -1.118110
H      -1.159922   -2.105061   -0.517484
H      -1.195719    1.364469   -1.380236
H      -1.737574    0.034568    1.293637
H      -1.045457    2.104390    0.202616
H      -2.649895   -0.097110   -0.201754
