 15
2-CNHT C4 pyramidalization MECI
C      -0.586354   -0.663595   -0.046225
C       0.705944   -0.086095   -0.032384
C      -1.330240   -0.889688   -1.269633
C       1.665153   -0.139905    1.079990
C      -2.674057   -1.158997   -1.269088
C       2.978028   -0.374258    0.859189
C      -0.626817   -0.819060   -2.538717
N      -0.140116   -0.803982   -3.563074
H      -1.170405   -0.865269    0.853437
H      -0.085561    0.688753    0.397820
H       1.340750    0.014822    2.104251
H      -3.219353   -1.195455   -0.342425
H       3.350644   -0.496069   -0.142920
H      -3.210503   -1.345244   -2.181076
H       3.675700   -0.463193    1.675429
