 15
2-CNHT C2 transoid MECI
C       0.662128    0.325079    0.137322
C      -0.629515   -0.363926    0.280318
C       1.845772   -0.280120   -0.291262
C      -1.828247    0.260792   -0.044390
C       2.644882    0.177497    0.862787
C      -3.070837   -0.380593   -0.068854
C       1.896921   -1.628045   -0.759058
N       1.949709   -2.693598   -1.160332
H       0.684212    1.388600    0.308423
H      -0.617695   -1.422716    0.481479
H      -1.803746    1.318713   -0.263276
H       2.641409   -0.387491    1.779315
H      -3.152226   -1.438060    0.115259
H       3.047721    1.175202    0.889729
H      -3.976230    0.169947   -0.247950
