 15
2-CNHT C5 transoid MECI
C      -0.614369   -0.208014    0.433774
C       0.670249    0.485243    0.279115
C      -1.822510    0.235237   -0.140202
C       1.757140   -0.169931   -0.324310
C      -3.014877   -0.485062   -0.133710
C       2.720532    0.028857    0.767391
C      -1.846752    1.562276   -0.740533
N      -1.865934    2.598915   -1.203097
H      -0.606955   -1.195339    0.863591
H       0.783631    1.502908    0.612007
H       1.624000   -1.135118   -0.781293
H      -3.044573   -1.474768    0.285791
H       2.796317   -0.691763    1.566268
H      -3.923227   -0.062737   -0.519940
H       3.124089    1.008396    0.962956
