 15
2-CNHT C5 transoid MECI
C      -1.160989   -0.393090    0.819714
C       1.266587    0.916976    0.527451
C      -3.444044    0.444533   -0.264943
C       3.320513   -0.321122   -0.612856
C      -5.697293   -0.916634   -0.252675
C       5.141061    0.054533    1.450159
C      -3.489856    2.952274   -1.399404
N      -3.526104    4.911238   -2.273524
H      -1.146979   -2.258864    1.631951
H       1.480849    2.840085    1.156526
H       3.068916   -2.145062   -1.476430
H      -5.753408   -2.786907    0.540067
H       5.284274   -1.307242    2.959817
H      -7.413824   -0.118555   -0.982543
H       5.903672    1.905592    1.819722
