 15
2-CNHT C3 pyramidalization MECI
C       0.652078    0.082319   -0.018938
C      -0.594830   -0.602315   -0.044191
C       1.648597   -0.082017    1.065533
C      -1.310545   -0.850454   -1.268099
C       2.914368   -0.494595    0.814217
C      -2.607870   -1.262683   -1.258361
C       1.275093    0.183104    2.450226
N       0.914200    0.388913    3.509427
H      -0.110799    0.805127    0.492913
H      -1.162853   -0.838494    0.858620
H      -0.772960   -0.687566   -2.186132
H       3.219737   -0.660449   -0.202598
H      -3.146330   -1.390700   -0.333937
H       3.617544   -0.683051    1.606728
H      -3.137064   -1.479215   -2.169726
