 15
2-CNHT C3 transoid MECI
C       0.466305    0.490563    0.391871
C      -0.436551   -0.653849    0.557968
C       1.677566   -0.036950    0.923122
C      -1.360636   -0.790989    1.626037
C       2.237554    0.645560    2.078224
C      -2.188943   -1.877756    1.778713
C       2.313935   -1.202184    0.359705
N       2.857958   -2.100254   -0.078746
H       0.175023    1.489262    0.664282
H      -0.297315   -1.499209   -0.099174
H      -1.457733    0.035918    2.314021
H       1.618744    0.765841    2.948367
H      -2.130090   -2.723100    1.113559
H       3.061527    1.327388    1.947316
H      -2.937152   -1.903651    2.550681
