 15
2-CNHT C5 pyramidalization MECI
C      -0.597977   -0.421568   -0.025356
C       0.621932    0.209849   -0.006266
C      -1.874662    0.257527    0.032020
C       1.905944   -0.359276   -0.204545
C      -3.087203   -0.362086    0.005510
C       3.070011   -0.564567    0.525214
C      -1.867801    1.708479    0.144092
N      -1.849917    2.841056    0.235727
H      -0.643011   -1.497270   -0.106315
H       0.643594    1.288459    0.054095
H       1.931265   -1.480297    0.205638
H      -3.149317   -1.433558   -0.076310
H       3.085450   -0.784462    1.589348
H      -4.004493    0.194453    0.062523
H       4.024290   -0.674304    0.028345
