 15
2-CNHT C1 pyramidalization MECI
C       0.517123    0.353736   -0.069838
C      -0.636809   -0.335336   -0.045504
C       1.835242   -0.248016   -0.029214
C      -1.933091    0.293400    0.025789
C       3.117314    0.378812    0.021389
C      -3.091868   -0.412362    0.051643
C       1.868381   -1.706356   -0.135243
N       1.887102   -2.838129   -0.225723
H       0.503347    1.430564   -0.041199
H      -0.616988   -1.411737   -0.071179
H      -1.965590    1.370384    0.054892
H       2.623781    0.772344   -1.024539
H      -3.093316   -1.489450    0.026280
H       3.087787    1.399153    0.418817
H      -4.046418    0.081229    0.097613
