 16
3-AmCHD S0 minimum
C       0.672125    0.355459   -0.124690
C      -0.581755   -0.365289    0.099236
C       1.865115   -0.334731   -0.091588
C      -0.627935   -1.719621    0.065586
C       1.877246   -1.803058    0.269752
C       0.622671   -2.519068   -0.236367
N       0.576411    1.754900   -0.278857
H      -1.471357    0.214488    0.287262
H       2.796461    0.196071   -0.209859
H      -1.563937   -2.235300    0.204129
H       2.759925   -2.281803   -0.142454
H       0.556689   -3.507080    0.208078
H       1.945449   -1.907116    1.353021
H       0.689389   -2.664347   -1.314196
H      -0.086743    2.020031   -0.979772
H       1.458640    2.175640   -0.492405
