 16
3-AmCHD C6 ring-closure MECI
C       0.474222    0.674210    1.100110
C       0.490456   -0.727851    1.210969
C       0.076342    1.239745   -0.166476
C      -0.197243   -1.452077    0.233169
C       0.364676    0.840485   -1.499831
C      -0.976692   -0.636836   -0.671214
N       0.552661    1.581696    2.204484
H       0.967301   -1.216202    2.049326
H      -0.488147    2.159986   -0.077731
H       0.050050   -2.464569   -0.035449
H       1.094417    0.083284   -1.720522
H      -1.792401   -0.066604   -0.254455
H      -0.007387    1.441563   -2.309519
H      -1.171937   -0.991026   -1.670533
H       1.490621    1.878565    2.391297
H       0.171060    1.202449    3.047033
