 16
3-AmCHD C2 pyramidalization MECI
C       2.641668   -0.157852   -0.036573
C       1.290253   -2.529676   -0.192009
C       1.456953    2.116297    0.986363
C      -1.290269   -2.427602   -0.084928
C      -1.144238    2.362698   -0.272244
C      -2.773041   -0.011064    0.253014
N       4.977370   -0.010124   -0.939459
H       2.235760   -4.287012   -0.628646
H       0.955290    1.497737    2.978302
H      -2.339678   -4.161166   -0.316771
H      -0.944295    2.607556   -2.306374
H      -3.432149    0.068991    2.201575
H      -2.131565    4.020922    0.421612
H      -4.460761   -0.099786   -0.923081
H       5.870797   -1.445572   -1.769166
H       5.793382    1.689483   -0.887171
