 16
3-AmCHD C5 pyramidalization MECI
C       1.310953   -2.393609   -0.276180
C       2.593425    0.042801   -0.223373
C      -1.274785   -2.389707   -0.141088
C       1.433690    2.404430    0.365020
C      -2.774198   -0.056888    0.518697
C      -1.424752    2.432864   -0.204635
N       2.769026   -4.519563   -0.998223
H       4.584924   -0.029704   -0.709261
H      -2.286735   -4.141178   -0.413044
H       1.191911    1.219854    2.319461
H      -3.024602   -0.034565    2.567805
H      -1.606770    2.794424   -2.220355
H      -4.658460   -0.189349   -0.290434
H      -2.344695    3.988249    0.756613
H       1.713476   -6.061328   -1.286884
H       4.114371   -4.928744    0.266236
