 16
3-AmCHD C2 pyramidalization MECI
C       1.397911   -0.083532   -0.019354
C       0.682772   -1.338647   -0.101607
C       0.770986    1.119896    0.521961
C      -0.682781   -1.284632   -0.044942
C      -0.605505    1.250286   -0.144065
C      -1.467430   -0.005855    0.133889
N       2.633911   -0.005357   -0.497140
H       1.183113   -2.268589   -0.332665
H       0.505518    0.792568    1.576049
H      -1.238104   -2.201994   -0.167628
H      -0.499699    1.379859   -1.220480
H      -1.816215    0.036508    1.165023
H      -1.127976    2.127780    0.223108
H      -2.360533   -0.052805   -0.488474
H       3.106692   -0.764964   -0.936202
H       3.065726    0.894036   -0.469471
