 16
3-AmCHD C4 pyramidalization MECI
C       1.226513   -2.361126   -0.320306
C       2.651734   -0.016362    0.572312
C      -1.332357   -2.346557   -0.398246
C       1.364047    2.257867   -0.043807
C      -2.730826   -0.068452    0.636197
C      -1.468039    2.430028   -0.137247
N       2.759949   -4.345477   -1.162007
H       1.478612    0.118018    2.475182
H      -2.388454   -3.924710   -1.140103
H       2.401468    3.965156   -0.499603
H      -2.788745   -0.156934    2.695819
H      -1.877343    2.872446   -2.112852
H      -4.682639   -0.065780    0.012057
H      -2.189461    4.009963    0.962470
H       2.048690   -6.065008   -0.843908
H       4.517353   -4.194918   -0.497449
