 10
BD S0 minimum
C      -0.061215    0.255384   -0.048985
C       0.778184    0.905738    0.792956
C       1.704173    0.243114    1.698536
C       2.543572    0.893468    2.540478
H      -0.728595    0.792149   -0.700659
H      -0.088870   -0.821546   -0.094479
H       0.772877    1.986403    0.805882
H       1.709481   -0.837551    1.685611
H       2.571226    1.970398    2.585973
H       3.210951    0.356703    3.192153
