 10
BD S0 minimum
C      -0.115679    0.482605   -0.092568
C       1.470556    1.711596    1.498470
C       3.220420    0.459420    3.209768
C       4.806654    1.688410    4.800808
H      -1.376846    1.496944   -1.324054
H      -0.167940   -1.552497   -0.178539
H       1.460526    3.753758    1.522895
H       3.230451   -1.582742    3.185344
H       4.858914    3.723513    4.886781
H       6.067818    0.674072    6.032296
