 10
BD C1 pyramidalization MECI
C       1.859253    0.103075    0.022560
C       0.748132   -0.676460   -0.046586
C      -0.577449   -0.077563   -0.007071
C      -1.853416   -0.695048    0.135308
H       2.839597   -0.319624    0.156861
H       1.788075    1.177231   -0.027326
H       0.825900   -1.750959    0.014039
H      -0.550199    0.996762   -0.177030
H      -1.828743   -1.660216    0.653989
H      -1.411920   -1.164271   -0.851898
