 8
VAm C1 pyramidalization MECI
C       1.205152   -0.554587   -0.122840
C       1.202580    0.826318    0.339745
N       0.994462    1.261939   -1.059949
H       0.290690   -1.119854   -0.201582
H       2.061476   -0.994481   -0.637065
H       2.108663    1.235226    0.746898
H       0.068709    1.155915   -1.424249
H       1.707859    1.092107   -1.766514
