 16
1-AmHT S0 minimum
C       1.097169    0.545032    0.036872
C      -1.152837   -0.710666   -0.005882
C       3.555312   -0.654165    0.045718
C      -3.595868    0.528688   -0.004020
C       5.762169    0.653480    0.077321
C      -5.848836   -0.690608   -0.048103
N       8.188515   -0.400947   -0.090515
H       1.067806    2.589462    0.072167
H      -1.144866   -2.754379   -0.046909
H       3.613393   -2.697113   -0.000123
H      -3.589386    2.571359    0.035307
H       5.741699    2.690429    0.113546
H      -5.956950   -2.725062   -0.088854
H      -7.606428    0.332699   -0.044734
H       8.217473   -2.266145    0.213128
H       9.446052    0.445453    1.035319
