 16
1-AmHT C1 pyramidalization MECI
C       0.942674    0.742534   -0.191770
C      -1.218978   -0.617457   -0.108629
C       3.378747   -0.410174    0.021080
C      -3.703563    0.474949    0.037347
C       5.847167    0.781169    0.030169
C      -5.871934   -0.902903    0.100588
N       6.405114    3.190574    1.044969
H       0.841733    2.778952   -0.182675
H      -1.099761   -2.653263   -0.130293
H       3.394291   -2.451973   -0.099308
H      -3.825476    2.509465    0.085687
H       4.886293    1.275724   -2.023356
H      -5.836459   -2.939024    0.063281
H      -7.694028   -0.005555    0.188619
H       5.708663    4.727908    0.192934
H       8.248067    3.415192    1.365447
