 16
1-AmHT C5 pyramidalization MECI
C      -1.039263   -0.631901   -0.016700
C       1.235481    0.631334   -0.023348
C      -3.463290    0.616296    0.004764
C       3.689900   -0.393661   -0.460541
C      -5.713016   -0.611816    0.007087
C       5.663426   -1.325917    1.049755
N      -8.102170    0.536215    0.247567
H      -1.035507   -2.675875   -0.091720
H       1.180242    2.676169    0.022002
H      -3.464259    2.661321    0.057816
H       3.538885   -2.638854   -0.238877
H      -5.772969   -2.647760   -0.056371
H       5.380862   -2.185093    2.894436
H       7.537490   -1.555183    0.274578
H      -9.378857   -0.182929   -0.946227
H      -8.036074    2.412552    0.022162
