 16
1-AmHT C6 pyramidalization MECI
C      -0.611381   -0.249715   -0.060102
C       0.560557    0.418722   -0.063485
C      -1.900526    0.365066    0.006681
C       1.820697   -0.269072   -0.014728
C      -3.051030   -0.365559    0.009431
C       3.154359    0.249264    0.026916
N      -4.331784    0.145555    0.138898
H      -0.585725   -1.327973   -0.102794
H       0.569282    1.496695   -0.023117
H      -1.952997    1.441370    0.058789
H       1.714279   -1.348636   -0.106473
H      -3.002649   -1.441109   -0.034924
H       2.775239    0.775725   -0.985383
H       3.202356    1.231341    0.521868
H      -5.046226   -0.382067   -0.314507
H      -4.424339    1.122628   -0.045556
