 16
1-AmHT C2 transoid MECI
C       1.114686    1.110766    0.615291
C      -1.280367   -0.174388    0.994955
C       3.202103   -0.254711   -0.446047
C      -3.483017    0.445082   -0.368651
C       5.217150    0.192027    1.428103
C      -5.668373   -0.881958   -0.316188
N       5.524086   -1.311166    3.550210
H       1.392915    3.068230    1.112359
H      -1.246543   -1.900754    2.076085
H       2.878667   -2.121593   -1.189301
H      -3.424233    2.145685   -1.494317
H      -5.837517   -2.608006    0.745853
H       5.935001    2.087484    1.633290
H      -7.321386   -0.244338   -1.308163
H       6.782251   -0.712137    4.817160
H       5.641674   -3.166777    3.235868
