 16
1-AmHT C4 transoid MECI
C      -0.404646   -0.627648    0.581537
C       0.497452    0.517085    0.409266
C      -1.393398   -0.739772    1.588375
C       1.679783   -0.036379    0.952700
C      -2.207295   -1.841479    1.741726
C       2.321593    0.651127    2.063147
N      -3.209480   -1.968407    2.707564
H      -0.213841   -1.499632   -0.029822
H       0.189665    1.504935    0.711310
H      -1.556012    0.113130    2.233594
H       2.052171   -0.969551    0.559006
H      -2.069923   -2.709278    1.118479
H       1.723935    0.918402    2.917508
H       3.190289    1.263754    1.874595
H      -4.026286   -2.443659    2.383779
H      -3.464431   -1.106039    3.143851
