 16
1-AmHT C4 transoid MECI
C      -0.764671   -1.186082    1.098946
C       0.940048    0.977149    0.773401
C      -2.633140   -1.397967    3.001593
C       3.174330   -0.068745    1.800341
C      -4.171183   -3.479891    3.291386
C       4.387174    1.230452    3.898782
N      -6.065039   -3.719751    5.116554
H      -0.404101   -2.833895   -0.056355
H       0.358415    2.843914    1.344182
H      -2.940437    0.213785    4.220881
H       3.878042   -1.832186    1.056369
H      -3.911588   -5.119793    2.113619
H       3.257766    1.735528    5.513291
H       6.028772    2.388149    3.542472
H      -7.608578   -4.617846    4.504689
H      -6.546825   -2.090110    5.941017
