 16
1-AmHT C6 pyramidalization MECI
C      -1.155343   -0.471893   -0.113576
C       1.059300    0.791269   -0.119968
C      -3.591474    0.689874    0.012625
C       3.440619   -0.508473   -0.027831
C      -5.765610   -0.690805    0.017822
C       5.960875    0.471042    0.050864
N      -8.185885    0.275059    0.262480
H      -1.106861   -2.509505   -0.194252
H       1.075787    2.828343   -0.043684
H      -3.690630    2.723795    0.111095
H       3.239517   -2.548553   -0.201206
H      -5.674184   -2.723301   -0.065997
H       5.244441    1.465907   -1.862104
H       6.051576    2.326898    0.986188
H      -9.535985   -0.722003   -0.594332
H      -8.360789    2.121459   -0.086088
