 16
1-AmHT C3 pyramidalization MECI
C       0.769097   -0.438571   -0.140082
C      -0.636735   -0.651558   -0.089733
C       1.661066   -0.570901    1.019741
C      -1.409631   -0.980853   -1.263306
C       2.984027   -0.303832    0.917401
C      -2.771422   -0.956561   -1.274132
N       3.884293   -0.228571    1.989124
H       0.315064    0.601672    0.151975
H      -1.240254   -0.443416    0.798687
H       1.267188   -0.844065    1.997825
H      -0.850866   -1.247729   -2.144561
H       3.397600   -0.050401   -0.043956
H      -3.333035   -0.662010   -0.402629
H      -3.332751   -1.237576   -2.148129
H       4.777630   -0.625657    1.780597
H       3.526288   -0.624219    2.835452
