 11
2-CNBD S0 minimum
C      -1.756856   -0.659866   -0.000001
C      -0.596775    0.044967    0.000000
C       0.732306   -0.600965    0.000001
C       1.888822    0.035939   -0.000001
C      -0.653764    1.484496    0.000001
N      -0.690521    2.660076    0.000003
H      -2.713044   -0.168640   -0.000001
H      -1.742496   -1.735643    0.000000
H       0.710116   -1.677587    0.000003
H       2.816658   -0.506130   -0.000001
H       1.955480    1.109353   -0.000003
