 11
2-CNBD C1 pyramidalization MECI
C      -1.842147   -0.695637    0.164194
C      -0.586782   -0.044720    0.045248
C       0.756853   -0.630417   -0.038939
C       1.903057    0.091561    0.023158
C      -0.634083    1.401315   -0.080228
N      -0.673266    2.551303   -0.208788
H      -1.796721   -1.711490    0.562507
H      -1.349482   -1.031791   -0.863681
H       0.790747   -1.707481   -0.034166
H       2.855699   -0.403623    0.085040
H       1.902145    1.167313    0.035975
