 11
2-CNBD C4 pyramidalization MECI
C      -3.282615   -1.298629    0.019246
C      -1.176680    0.179132   -0.094573
C       1.347129   -0.988171   -0.020328
C       3.754600    0.116595    0.251533
C      -1.381020    2.886458    0.029161
N      -1.520299    5.065987    0.078129
H      -5.136283   -0.504160    0.259049
H      -3.116908   -3.322396   -0.083579
H       1.238121   -3.011324   -0.340433
H       3.882015    1.976942    1.122611
H       2.907718    0.893735   -1.671696
