 11
2-CNBD C2 transoid MECI
C      -2.948516   -1.248428   -0.411367
C      -1.090855    0.319014    0.921745
C       1.075593   -1.199615    0.558367
C       3.383499   -0.152129   -0.539727
C      -1.092442    2.995550    0.800366
N      -1.158000    5.188633    0.785899
H      -3.334410   -0.925965   -2.381157
H      -3.530260   -3.022567    0.393154
H       0.976478   -3.152329    1.117219
H       5.036319    0.027215    0.635982
H       3.246654    1.089866   -2.141004
