 11
2-CNBD C2 pyramidalization MECI
C       2.660613   -2.916752    1.687105
C       0.159684   -2.346715    0.710946
C      -1.562917   -0.285472    0.357101
C      -3.904709   -0.404754   -0.675825
C       0.399479   -4.879596    0.325754
N       1.566610   -6.835909    0.453932
H       4.330336   -2.783764    0.525922
H       2.975384   -3.384815    3.645588
H      -0.860891    1.516562    1.000167
H      -5.036971    1.273066   -0.849269
H      -4.698837   -2.154542   -1.348578
