 11
2-CNBD C3 transoid MECI
C      -3.872364   -1.359289   -0.528221
C      -1.320103   -0.347361   -0.263453
C       0.724316   -2.051287   -0.715588
C       2.041731   -2.018282    1.714617
C      -0.914047    2.231774    0.445623
N      -0.660371    4.344114    0.971200
H      -4.936112   -0.950927   -2.214328
H      -4.369823   -3.017003    0.531513
H       0.352558   -3.777512   -1.717666
H       3.032034   -0.345517    2.311530
H       1.539404   -3.353719    3.169877
