 11
2-CNBD C2 pyramidalization MECI
C       1.407936   -1.543479    0.892778
C       0.084501   -1.241828    0.376216
C      -0.827060   -0.151065    0.188970
C      -2.066283   -0.214187   -0.357631
C       0.211395   -2.582171    0.172381
N       0.829014   -3.617407    0.240210
H       2.291515   -1.473105    0.278306
H       1.574505   -1.791167    1.929162
H      -0.455564    0.802530    0.529266
H      -2.665450    0.673677   -0.449414
H      -2.486517   -1.140135   -0.713637
