 11
2-CNBD C3 transoid MECI
C      -2.049167   -0.719305   -0.279523
C      -0.698568   -0.183816   -0.139414
C       0.383291   -1.085495   -0.378673
C       1.080437   -1.068029    0.907336
C      -0.483693    1.181004    0.235813
N      -0.349453    2.298806    0.513937
H      -2.612078   -0.503209   -1.171772
H      -2.312411   -1.596529    0.281264
H       0.186566   -1.998973   -0.908950
H       1.604483   -0.182840    1.223209
H       0.814618   -1.774712    1.677427
