 11
2-CNBD C3 pyramidalization MECI
C      -3.691939   -1.031246   -0.321101
C      -1.250878   -0.302866    0.145490
C       1.040086   -1.796665    0.031162
C       2.581491   -2.785363    1.962973
C      -0.771197    2.375080    0.535339
N      -0.386851    4.454587    0.900033
H      -5.179464    0.341119   -0.470306
H      -4.146628   -2.988119   -0.643260
H       0.243587   -3.981825    0.342942
H       4.526905   -3.270175    1.573334
H       1.865080   -3.440894    3.771676
