 11
2-CNBD C4 pyramidalization MECI
C      -1.737085   -0.687205    0.010185
C      -0.622672    0.094792   -0.050046
C       0.712870   -0.522917   -0.010757
C       1.986849    0.061700    0.133105
C      -0.730804    1.527448    0.015431
N      -0.804507    2.680805    0.041344
H      -2.718004   -0.266790    0.137083
H      -1.649397   -1.758136   -0.044228
H       0.655185   -1.593524   -0.180149
H       2.054274    1.046153    0.594060
H       1.538698    0.472944   -0.884624
