 16
2-AmHT C5 transoid MECI
C      -1.159696   -0.421807    0.665764
C       1.295637    0.829547    0.353863
C      -3.456561    0.503467   -0.289799
C       3.418403   -0.432549   -0.615545
C      -5.667580   -0.927082   -0.091154
C       5.071064    0.074884    1.568409
N      -3.557676    2.884019   -1.496931
H      -1.153914   -2.322527    1.388951
H       1.497239    2.793034    0.869343
H       3.214559   -2.325992   -1.333564
H      -5.613262   -2.798142    0.695203
H       5.079102   -1.182499    3.173316
H      -7.464276   -0.196145   -0.701437
H       5.840071    1.935973    1.873098
H      -2.233929    4.094114   -0.912232
H      -5.254602    3.699532   -1.365232
