 16
2-AmHT C3 pyramidalization MECI
C       0.615071    0.012601    0.050966
C      -0.609075   -0.687203   -0.058010
C       1.623914   -0.103806    1.104731
C      -1.328669   -0.803364   -1.305564
C       2.868762   -0.562942    0.797475
C      -2.609620   -1.249119   -1.357027
N       1.302449    0.346061    2.419638
H      -0.215743    0.670119    0.563303
H      -1.167843   -1.058427    0.805933
H      -0.794775   -0.518565   -2.196226
H       3.144971   -0.724799   -0.227630
H      -3.149471   -1.508621   -0.460813
H       3.591633   -0.790540    1.564868
H      -3.128762   -1.365201   -2.292455
H       2.094238    0.320255    3.031871
H       0.562066   -0.186575    2.834360
