 16
2-AmHT C2 pyramidalization MECI
C       0.568030    0.206664   -0.031699
C      -0.663202   -0.418292   -0.064076
C       1.830489   -0.396486   -0.198855
C      -1.910822    0.288622    0.058697
C       3.063055   -0.218225    0.540947
C      -3.147499   -0.276101    0.052462
N       2.096434   -1.771324    0.155497
H       0.586220    1.283082    0.075494
H      -0.707841   -1.491072   -0.197728
H      -1.844955    1.363224    0.169988
H       3.089214   -0.133502    1.618716
H      -3.280595   -1.341262   -0.055916
H       4.021234   -0.271833    0.051432
H      -4.037186    0.321708    0.152802
H       2.391566   -2.403838   -0.559502
H       1.553532   -2.192918    0.886719
