 16
2-AmHT C2 pyramidalization MECI
C       1.073421    0.390538   -0.059903
C      -1.253271   -0.790457   -0.121085
C       3.459123   -0.749250   -0.375782
C      -3.610930    0.545416    0.110922
C       5.788335   -0.412386    1.022242
C      -5.947911   -0.521756    0.099139
N       3.961687   -3.347318    0.293848
H       1.107795    2.424674    0.142664
H      -1.337625   -2.817717   -0.373653
H      -3.486460    2.576121    0.321230
H       5.837769   -0.252282    3.058930
H      -6.199427   -2.534618   -0.105666
H       7.599030   -0.513689    0.097192
H      -7.629176    0.607941    0.288755
H       4.519404   -4.542595   -1.057306
H       2.935751   -4.144015    1.675656
