 16
2-AmHT C4 transoid MECI
C      -0.799025   -1.190876    1.082580
C       0.883695    0.978107    0.701927
C      -2.667401   -1.427226    3.013735
C       3.084378   -0.069049    1.797064
C      -4.024385   -3.628823    3.298787
C       4.270871    1.238406    3.904564
N      -3.082973    0.685150    4.613782
H      -0.437102   -2.860742   -0.031315
H       0.323269    2.856026    1.246757
H       3.797557   -1.844462    1.091997
H      -3.551721   -5.282940    2.217318
H       3.101495    1.827806    5.458163
H      -5.564679   -3.771363    4.620704
H       6.024456    2.237924    3.615029
H      -4.530684    0.402392    5.794858
H      -3.390751    2.279091    3.649428
