 16
2-AmHT C1 pyramidalization MECI
C       0.504614    0.261921   -0.252797
C      -0.661355   -0.353134    0.014214
C       1.827455   -0.311351   -0.036938
C      -1.948652    0.291093   -0.091178
C       3.004660    0.459464    0.329490
C      -3.125106   -0.323933    0.192921
N       1.978432   -1.618561   -0.182690
H       0.503298    1.300407   -0.533718
H      -0.663709   -1.374333    0.361827
H      -1.959344    1.317136   -0.423616
H       3.139646    1.176616   -0.534055
H      -3.157748   -1.346755    0.531685
H       2.763256    1.126253    1.159897
H      -4.064727    0.189518    0.088880
H       1.275966   -2.220681   -0.551901
H       2.890124   -1.976858    0.010747
