 16
2-AmHT C3 pyramidalization MECI
C       1.162315    0.023812    0.096311
C      -1.150984   -1.298625   -0.109624
C       3.068752   -0.196165    2.087638
C      -2.510821   -1.518137   -2.467158
C       5.421174   -1.063807    1.507010
C      -4.931467   -2.360492   -2.564409
N       2.461273    0.653960    4.572452
H      -0.407696    1.266341    1.064489
H      -2.206903   -2.000138    1.522992
H      -1.501908   -0.979947   -4.150265
H       5.943133   -1.369671   -0.430158
H      -5.951637   -2.850881   -0.870809
H       6.787203   -1.493904    2.957172
H      -5.912503   -2.579857   -4.332112
H       3.957536    0.605194    5.729405
H       1.062150   -0.352575    5.356163
