 16
2-AmHT C1 pyramidalization MECI
C       0.953583    0.494960   -0.477717
C      -1.249779   -0.667326    0.026860
C       3.453390   -0.588369   -0.069803
C      -3.682419    0.550086   -0.172302
C       5.677984    0.868262    0.622646
C      -5.905595   -0.612145    0.364568
N       3.738694   -3.058637   -0.345234
H       0.951096    2.457413   -1.008580
H      -1.254228   -2.597113    0.683755
H      -3.702623    2.489027   -0.800518
H       5.933072    2.223482   -1.009218
H      -5.967278   -2.544998    1.004740
H       5.221797    2.128309    2.191888
H      -7.681221    0.358137    0.167959
H       2.411226   -4.196479   -1.042942
H       5.461543   -3.735719    0.020309
