 16
2-AmHT C3 transoid MECI
C       0.907651    0.393193    1.287644
C      -0.705711   -1.668128    1.760441
C       3.559524   -0.073047    1.757094
C      -3.214040   -1.437354    2.743929
C       4.462560    1.373148    3.823171
C      -4.757410   -3.433798    3.294541
N       4.795475   -1.752264    0.426779
H       0.301401    2.308000    1.595350
H       0.056284   -3.555653    1.595533
H      -3.938490    0.454733    2.996546
H       4.392441    0.472714    5.639777
H      -4.115771   -5.357955    3.098561
H       5.820394    2.846000    3.471661
H      -6.671017   -3.150574    3.920756
H       4.007682   -2.624459   -1.056937
H       6.543088   -2.230527    0.955185
