 16
2-AmHT C6 pyramidalization MECI
C      -0.618093   -0.273214   -0.040433
C       0.549893    0.417567   -0.204884
C      -1.942456    0.313536    0.061484
C       1.814639   -0.260102   -0.021378
C      -3.035936   -0.492586    0.071934
C       3.128901    0.278734    0.099138
N      -2.024407    1.721399    0.063349
H      -0.570248   -1.347835    0.044818
H       0.549655    1.489292   -0.317223
H       1.713008   -1.343677   -0.033398
H      -2.932788   -1.559240   -0.014735
H       2.768000    0.623792   -0.968796
H      -4.034081   -0.092411    0.127783
H       3.147174    1.313761    0.463333
H      -1.459648    2.143471    0.773034
H      -2.964034    2.050615    0.153891
