 15
1-CNHT S0 minimum
C       0.481093   -0.506833    0.000000
C       1.635715    0.244541    0.000000
C      -0.827257    0.101716    0.000000
C       2.969784   -0.317496    0.000000
C      -1.969684   -0.576709   -0.000000
C       4.105300    0.428567   -0.000000
C      -3.252049    0.085184   -0.000000
N      -4.282018    0.606020   -0.000000
H       0.540402   -1.582195    0.000000
H       1.555897    1.321675    0.000000
H      -0.865555    1.178875    0.000000
H       3.051478   -1.394105    0.000000
H      -1.991014   -1.651469   -0.000000
H       4.070233    1.505641   -0.000000
H       5.077286   -0.032088   -0.000000
