 15
1-CNHT C1 pyramidalization MECI
C       0.959478    0.814154   -0.175825
C      -1.185589   -0.554486   -0.103012
C       3.372019   -0.404509    0.010568
C      -3.677727    0.525526    0.023967
C       5.837503    0.705013   -0.010510
C      -5.801039   -0.911028    0.105720
C       6.263951    3.106329    1.163610
N       6.717410    4.974871    2.143125
H       0.901284    2.848958   -0.166098
H      -1.059079   -2.589015   -0.115008
H       3.291357   -2.450612   -0.070505
H      -3.827692    2.555774    0.048619
H       5.038837    1.450540   -1.988549
H      -5.707009   -2.945129    0.090943
H      -7.647420   -0.065612    0.187792
