 15
1-CNHT C6 pyramidalization MECI
C      -0.615146   -0.313634   -0.048341
C       0.529609    0.394255   -0.096507
C      -1.917007    0.289488    0.026093
C       1.823950   -0.244749   -0.028753
C      -3.070011   -0.439005    0.061100
C       3.114573    0.352652    0.066702
C      -4.362201    0.183981    0.121022
N      -5.390602    0.666027    0.168339
H      -0.568240   -1.390996   -0.057416
H       0.499777    1.472332   -0.088526
H      -1.977826    1.364510    0.048508
H       1.786535   -1.324600   -0.135601
H      -3.057861   -1.514462    0.043937
H       2.673468    0.750200   -0.997863
H       3.144352    1.368722    0.471445
