 15
1-CNHT C2 pyramidalization MECI
C       1.184358    0.717994   -0.052347
C      -1.028337   -0.666710    0.011038
C       3.655786   -0.204004   -0.515181
C      -3.498723    0.469620    0.048146
C       5.591685   -1.269114    0.963724
C      -5.703118   -0.846516    0.104283
C       8.104746   -1.574393   -0.016284
N      10.102114   -1.861319   -0.759291
H       1.027343    2.756449   -0.068275
H      -0.927504   -2.708074   -0.025264
H       3.574060   -2.496688   -0.376039
H      -3.576616    2.510322    0.051616
H       5.292506   -2.081811    2.818072
H      -5.726131   -2.883762    0.083555
H      -7.500230    0.102425    0.165669
