 15
1-CNHT C3 pyramidalization MECI
C       0.707966   -0.038750   -0.085029
C      -0.600810   -0.601090   -0.062386
C       1.632713   -0.190335    1.064184
C      -1.329957   -0.897167   -1.267183
C       2.955839   -0.378162    0.853578
C      -2.656478   -1.203969   -1.243205
C       3.884594   -0.565750    1.940214
N       4.625972   -0.715863    2.789176
H       0.014731    0.788424    0.378718
H      -1.191635   -0.709256    0.851941
H       1.289716   -0.147527    2.093280
H      -0.774288   -0.861288   -2.188295
H       3.353680   -0.402023   -0.144075
H      -3.213308   -1.208284   -0.320694
H      -3.191877   -1.457661   -2.141222
