 15
1-CNHT C4 transoid MECI
C      -0.368838   -0.658257    0.614829
C       0.441196    0.537382    0.385590
C      -1.357740   -0.779375    1.618951
C       1.626862   -0.009388    0.930870
C      -2.172409   -1.890356    1.752048
C       2.269139    0.640349    2.064279
C      -3.231281   -1.940116    2.708674
N      -4.075079   -1.989340    3.471993
H      -0.150651   -1.530106    0.014681
H       0.095619    1.492767    0.747152
H      -1.529445    0.063222    2.270208
H       2.034577   -0.911191    0.501644
H      -2.048520   -2.754316    1.123449
H       1.670836    0.948206    2.902594
H       3.215878    1.136417    1.923466
