 15
1-CNHT C4 pyramidalization MECI
C      -1.127556   -1.277666   -0.092003
C       1.338016   -0.215254   -0.113800
C      -2.507484   -1.718228   -2.395725
C       3.138771   -0.227009    1.999486
C      -5.047441   -2.225835   -2.394398
C       5.617650   -0.717536    1.622550
C      -6.423059   -2.725229   -4.674996
N      -7.539328   -3.123071   -6.467325
H      -2.199594   -1.597609    1.642888
H      -0.164573    1.271618    0.659867
H      -1.465318   -1.599657   -4.137648
H       2.521248    0.170327    3.914815
H      -6.116747   -2.286180   -0.666275
H       6.332126   -1.052541   -0.251833
H       6.925166   -0.822293    3.179648
