 15
1-CNHT C2 transoid MECI
C       1.284762    0.711408    0.280453
C      -1.141520   -0.609020    0.600790
C       3.488669   -0.456094   -0.611632
C      -3.418148    0.458771   -0.172815
C       4.930761    0.287053    1.661942
C      -5.741215   -0.794240   -0.155128
C       5.247057   -1.386813    3.733244
N       5.556611   -2.769272    5.361236
H       1.334770    2.713670    0.663198
H      -1.088738   -2.551116    1.212111
H       3.432713   -2.417277   -1.150557
H      -3.394948    2.405425   -0.789721
H      -5.877281   -2.743592    0.411239
H       5.608445    2.187134    1.900636
H      -7.456294    0.169349   -0.659325
