 15
1-CNHT C6 pyramidalization MECI
C      -1.162458   -0.592683   -0.091351
C       1.000815    0.745033   -0.182372
C      -3.622617    0.547053    0.049308
C       3.446765   -0.462509   -0.054335
C      -5.801480   -0.829599    0.115461
C       5.885690    0.666417    0.126049
C      -8.243366    0.347674    0.228698
N     -10.186762    1.258608    0.318114
H      -1.073818   -2.628602   -0.108500
H       0.944441    2.782304   -0.167290
H      -3.737550    2.578550    0.091668
H       3.376063   -2.503132   -0.256249
H      -5.778520   -2.861919    0.083028
H       5.052122    1.417672   -1.885688
H       5.941964    2.586510    0.890902
