 15
2-CNCHD C4 pyramidalization MECI
C       1.352782   -2.293159   -0.319334
C       2.705234    0.088745    0.462323
C      -1.216477   -2.337982   -0.422887
C       1.327005    2.336739   -0.073435
C      -2.712843   -0.111197    0.612820
C      -1.510934    2.445915   -0.067279
C      -2.562315   -4.524128   -1.325029
N      -3.665203   -6.227256   -2.032668
H       2.455660   -3.912873   -0.864266
H       1.566586    0.295207    2.427649
H       2.309891    4.073101   -0.530331
H      -2.767853   -0.297879    2.661705
H      -1.994504    2.986690   -1.999040
H      -4.653750   -0.164448   -0.030808
H      -2.249473    3.935751    1.139442
