 15
2-CNCHD C1 ring-closure MECI
C       0.378823   -0.750276    1.275636
C       0.497032    0.625225    1.105363
C      -0.312467   -1.481877    0.277653
C       0.188614    1.196408   -0.183986
C      -0.994701   -0.661242   -0.701330
C       0.443453    0.666988   -1.465904
C      -0.038263   -2.851363   -0.005666
N       0.159468   -3.952292   -0.228310
H       0.757760   -1.241787    2.157109
H       0.664514    1.289086    1.934660
H      -0.312208    2.156976   -0.176909
H      -1.773106   -0.010791   -0.336434
H       1.144803   -0.132976   -1.615930
H      -1.192407   -1.063810   -1.681381
H       0.130399    1.228801   -2.327440
