 15
2-CNCHD C4 pyramidalization MECI
C       0.715861   -1.213488   -0.168984
C       1.431548    0.046962    0.244651
C      -0.643732   -1.237207   -0.223782
C       0.702221    1.236549   -0.038860
C      -1.435575   -0.058843    0.324290
C      -0.799552    1.294323   -0.035602
C      -1.355918   -2.394065   -0.701175
N      -1.939542   -3.295322   -1.075642
H       1.299480   -2.070603   -0.457350
H       0.829001    0.156217    1.284657
H       1.222342    2.155392   -0.280639
H      -1.464685   -0.157631    1.408514
H      -1.055446    1.580488   -1.057846
H      -2.462658   -0.087022   -0.016303
H      -1.190370    2.082710    0.602967
