 15
2-CNCHD C3 transoid MECI
C       0.513620    0.673513    0.614250
C      -0.373769   -0.420698    0.386151
C       1.571235   -0.247610    1.068751
C      -0.141426   -1.672526   -0.303133
C       2.254623   -1.104095    0.091688
C       1.177726   -2.327669   -0.228588
C       1.747577   -0.537691    2.465631
N       1.931261   -0.737652    3.571702
H       0.149050    1.380250    1.341096
H      -1.359398   -0.318585    0.820054
H      -0.886463   -1.998796   -1.006997
H       2.443983   -0.577988   -0.831814
H       1.300380   -2.985049    0.625258
H       3.152110   -1.566021    0.475796
H       1.455703   -2.871320   -1.126213
