 15
2-CNCHD C6 ring-closure MECI
C       0.786429    1.247888    2.146481
C       0.825909   -1.415379    2.329680
C       0.110292    2.329674   -0.251576
C      -0.424082   -2.756190    0.452202
C       0.832126    1.665982   -2.767461
C      -1.834081   -1.202981   -1.297638
C      -1.399266    4.649093   -0.101336
N      -2.589395    6.429483    0.023768
H       0.814620    2.448206    3.784368
H       1.742605   -2.356175    3.888032
H      -0.004716   -4.687492   -0.024045
H       2.243728    0.248390   -3.095419
H      -3.429588   -0.152359   -0.588824
H       0.101938    2.737478   -4.325295
H      -2.048783   -1.803063   -3.232447
