 15
2-CNCHD C4 transoid MECI
C      -0.782701   -0.850192    0.691719
C       0.987502    1.084889    1.270569
C      -0.336810   -3.218312   -0.590894
C       3.096012   -0.550103    1.971233
C       2.131352   -4.440407   -0.338537
C       4.326839   -2.041113    0.091796
C      -1.882705   -3.766707   -2.710834
N      -3.148237   -4.239832   -4.394883
H      -2.699454   -0.473898    1.276574
H       0.329038    2.444713    2.633243
H       3.358027   -1.087730    3.925747
H       2.432393   -5.496557    1.378952
H       4.526289   -1.142303   -1.725384
H       2.707859   -5.571313   -1.947021
H       6.000208   -3.034780    0.700540
