 15
1-CNCHD S0 minimum
C       0.628306    0.351288   -0.109195
C      -0.617294   -0.377931    0.126290
C       1.822781   -0.287842   -0.100680
C      -0.638978   -1.732420    0.085461
C       1.874091   -1.772966    0.228433
C       0.614532   -2.509204   -0.258398
C       3.083807   -2.405727   -0.333985
N       4.027985   -2.897966   -0.778667
H       0.589041    1.415142   -0.272968
H      -1.520589    0.178590    0.311762
H       2.747187    0.243965   -0.241528
H      -1.559980   -2.273837    0.218875
H       1.944971   -1.872431    1.309517
H       0.588281   -3.500082    0.179686
H       0.661477   -2.640905   -1.336843
