 15
1-CNCHD C6 ring-closure MECI
C       0.726725    1.265627    2.140294
C       0.821124   -1.392250    2.312162
C       0.153061    2.418908   -0.218438
C      -0.374393   -2.759849    0.403297
C       0.742718    1.634105   -2.746817
C      -1.882516   -1.282513   -1.292310
C      -0.022369    3.168164   -4.816091
N      -0.686482    4.370152   -6.478572
H       0.788088    2.440353    3.798200
H       1.735244   -2.326481    3.876865
H      -0.800151    4.226326   -0.118560
H       0.126766   -4.668833   -0.083205
H       2.100914    0.173942   -3.113558
H      -3.366537   -0.127495   -0.511466
H      -2.236387   -1.934132   -3.188310
