 15
1-CNCHD C1 ring-closure MECI
C       0.835721   -1.395753    2.342122
C       0.642428    1.243942    2.134226
C      -0.227254   -2.816210    0.390690
C      -0.001261    2.282259   -0.290515
C      -1.679590   -1.284982   -1.356179
C       0.828062    1.638490   -2.782785
C      -2.168371   -2.254680   -3.885817
N      -2.629278   -3.100267   -5.802847
H       1.669830   -2.284467    3.976019
H       0.513798    2.447800    3.767514
H       0.353907   -4.690205   -0.128962
H      -1.243175    3.911595   -0.250011
H      -3.309101   -0.331418   -0.588379
H       2.317075    0.297650   -3.101761
H       0.135457    2.723975   -4.350393
