 15
1-CNCHD C6 ring-closure MECI
C       0.384566    0.669741    1.132595
C       0.434520   -0.736747    1.223543
C       0.080997    1.280031   -0.115593
C      -0.198120   -1.460449    0.213415
C       0.393029    0.864731   -1.453553
C      -0.996184   -0.678677   -0.683861
C      -0.011837    1.676520   -2.548566
N      -0.363271    2.312585   -3.428312
H       0.417038    1.291379    2.009921
H       0.918251   -1.231121    2.051548
H      -0.423422    2.236475   -0.062739
H       0.067082   -2.470640   -0.044030
H       1.111756    0.092046   -1.647624
H      -1.781495   -0.067467   -0.270656
H      -1.183445   -1.023499   -1.687181
