 15
1-CNCHD C2 pyramidalization MECI
C       1.378709    0.024094   -0.110998
C       0.715143   -1.266895   -0.102989
C       0.764617    1.284779    0.141628
C      -0.653007   -1.279423   -0.094808
C      -0.753401    1.280478   -0.111479
C      -1.459767   -0.067271    0.268894
C      -1.016910    1.610034   -1.530284
N      -1.251285    1.869785   -2.629574
H       2.432944   -0.012007   -0.360817
H       1.275523   -2.150386   -0.359331
H       0.658040    0.664605    1.136612
H      -1.176336   -2.195753   -0.313427
H      -1.540115   -0.042841    1.355316
H      -1.225989    2.059836    0.471697
H      -2.467852   -0.150246   -0.123050
