 11
1-CNBD S0 minimum
C       2.689834   -0.026590    0.000000
C       1.367798   -0.567234    0.000001
C       0.258458    0.222320   -0.000001
C      -1.098097   -0.312622   -0.000001
C      -2.181219    0.449072    0.000001
N       3.780057    0.416736    0.000001
H       1.288882   -1.640211    0.000002
H       0.376470    1.292962   -0.000002
H      -1.197811   -1.386013   -0.000002
H      -2.118357    1.523782    0.000002
H      -3.168407    0.023779    0.000001
