 11
1-CNBD C3 pyramidalization MECI
C      -5.655112    0.898050   -0.566029
C      -3.722210   -0.983014   -0.444460
C      -1.288225   -0.370202    0.207210
C       0.889653   -1.940408    0.157072
C       2.668691   -2.718621    1.956253
N      -7.212826    2.381889   -0.650796
H      -4.258789   -2.884204   -0.926667
H      -0.869514    1.583298    0.618610
H       0.204016   -4.080259    0.732296
H       4.559113   -3.245067    1.383985
H       2.190647   -3.173744    3.900965
