 11
1-CNBD C4 pyramidalization MECI
C       5.990030   -0.997049    0.257192
C       3.537419    0.083507   -0.021956
C       1.395149   -1.347251   -0.216074
C      -1.075219   -0.151402   -0.045823
C      -3.449765   -1.302905    0.392141
N       7.992019   -1.851530    0.475281
H       3.440990    2.116459   -0.032138
H       1.509318   -3.380656   -0.175044
H      -1.033668    1.874402   -0.366325
H      -3.475114   -3.189373    1.217759
H      -2.684794   -2.009425   -1.599357
