 11
1-CNBD C1 pyramidalization MECI
C      -3.955743   -3.328749    0.930041
C      -3.398583   -0.980302   -0.258022
C      -0.937164    0.063984   -0.165621
C       1.471309   -1.234484   -0.171242
C       3.605826    0.118352    0.253923
N      -4.573486   -5.165201    1.957754
H      -2.491952   -1.725544   -2.118074
H      -0.755563    2.106728   -0.267711
H       1.484781   -3.270491   -0.203199
H       3.569340    2.153079    0.306428
H       5.390298   -0.788622    0.607517
