 11
1-CNBD C2 transoid MECI
C       0.746298   -1.851081    2.112188
C       0.953061   -1.016163    0.992466
C       0.271924   -1.236122   -0.288815
C      -0.700387   -0.219411   -0.118124
C      -2.116781   -0.565467   -0.142166
N       0.590861   -2.557383    3.024251
H       1.519198   -0.115157    1.153639
H      -0.038973   -2.228635   -0.564846
H      -0.376829    0.796179    0.042426
H      -2.459863   -1.402705    0.437847
H      -2.720583   -0.258765   -0.980443
