 11
1-CNBD C2 transoid MECI
C       1.410300   -3.498035    3.991457
C       1.801024   -1.920270    1.875489
C       0.513863   -2.335932   -0.545782
C      -1.323540   -0.414626   -0.223223
C      -4.000135   -1.068577   -0.268654
N       1.116566   -4.832753    5.715006
H       2.870868   -0.217615    2.180062
H      -0.073648   -4.211510   -1.067404
H      -0.712103    1.504561    0.080173
H      -4.648468   -2.650728    0.827410
H      -5.141157   -0.488995   -1.852768
