 11
1-CNBD C3 pyramidalization MECI
C      -2.992557    0.475228   -0.299530
C      -1.969709   -0.520189   -0.235198
C      -0.681699   -0.195903    0.109651
C       0.470784   -1.026819    0.083119
C       1.412210   -1.438632    1.035204
N      -3.816863    1.260441   -0.344386
H      -2.253654   -1.526255   -0.490371
H      -0.460127    0.837845    0.327354
H       0.107961   -2.159180    0.387514
H       2.412579   -1.717216    0.732373
H       1.159241   -1.679473    2.064302
