 12
2-AmBD S0 minimum
C      -0.098338    0.431591   -0.047771
C       1.533094    1.767168    1.414956
C       3.251299    0.478726    3.154074
C       4.757620    1.626080    4.878229
N       1.597552    4.445031    1.433022
H      -1.375595    1.349003   -1.340749
H      -0.217623   -1.591054    0.112391
H       3.290337   -1.554796    3.009918
H       4.756794    3.642384    5.136955
H       5.978344    0.529956    6.080229
H       0.443857    5.184922    0.131079
H       3.343186    5.106816    1.135711
