 12
2-AmBD C2 pyramidalization MECI
C       2.670672   -2.344991    1.976913
C       0.684479   -2.049225    0.099846
C      -1.320299   -0.254226    0.111255
C      -3.834533   -0.715859   -0.286945
N       0.226378   -4.655058    0.787394
H       4.523281   -3.009192    1.454623
H       2.330399   -2.156751    3.984744
H      -0.733455    1.684450    0.383604
H      -4.541150   -2.595445   -0.639539
H      -5.181021    0.806466   -0.339806
H       0.653557   -6.007455   -0.457578
H      -1.263858   -5.045103    1.894726
