 12
2-AmBD C4 pyramidalization MECI
C       3.482461    0.276999    0.012674
C       1.459284   -1.325497    0.022672
C      -1.033176   -0.144217    0.001965
C      -3.484632   -1.214357    0.336322
N       1.632581   -3.930962    0.244318
H       5.379592   -0.361910    0.381496
H       3.212663    2.253142   -0.369096
H      -0.907921    1.841848   -0.500807
H      -3.490525   -2.888423    1.565960
H      -2.729033   -2.357424   -1.408952
H       0.155551   -4.727852    1.104073
H       3.273535   -4.582813    0.903938
