 12
2-AmBD C2 transoid MECI
C      -2.726539    0.599361   -0.515478
C      -0.174252    1.428239   -1.133085
C       0.786472   -0.958739   -0.312076
C       2.396542   -1.185213    1.941767
N       0.800865    3.793125   -0.516924
H      -3.447380    0.840990    1.371851
H      -3.835142   -0.458997   -1.850704
H       0.366495   -2.581559   -1.462854
H       1.691443   -2.131908    3.600125
H       3.924656    0.124945    2.224247
H      -0.309169    5.199799   -1.112828
H       2.580369    4.054909   -1.097824
