 14
HT C1 pyramidalization MECI
C       1.004484    0.753838   -0.154401
C      -1.158230   -0.580442   -0.087881
C       3.445837   -0.457767   -0.040251
C      -3.641430    0.534426    0.043587
C       5.906219    0.645281    0.050040
C      -5.803313   -0.844404    0.107503
H       0.951680    2.791414   -0.131425
H      -1.061198   -2.616977   -0.114376
H       3.344524   -2.502899   -0.203061
H      -3.753442    2.568559    0.083249
H       5.094746    1.483880   -1.915962
H      -5.764386   -2.880393    0.075479
H       5.954951    2.544991    0.879219
H      -7.627180    0.049535    0.191129
