 14
HT C2 transoid MECI
C       1.266147    0.779265    0.397302
C      -1.161333   -0.539377    0.715211
C       3.412721   -0.402949   -0.609617
C      -3.433500    0.434496   -0.217643
C       5.090605    0.209363    1.531100
C      -5.732482   -0.843197   -0.213491
H       1.374831    2.756285    0.882147
H      -1.117699   -2.453255    1.414878
H       3.277033   -2.315448   -1.294044
H      -3.411424    2.342526   -0.947132
H       5.170518   -1.010724    3.162399
H      -5.870243   -2.758038    0.463273
H       5.797312    2.102648    1.782524
H      -7.440850    0.062161   -0.837716
