 14
HT C3 pyramidalization MECI
C       1.313967   -0.063054   -0.115088
C      -1.128378   -1.188745   -0.101866
C       3.130663   -0.239997    2.000006
C      -2.523774   -1.672635   -2.390169
C       5.591560   -0.790089    1.603375
C      -5.025656   -2.281170   -2.373333
H      -0.107888    1.421105    0.748749
H      -2.213882   -1.505689    1.629459
H       2.533313    0.081098    3.938383
H      -1.485301   -1.515411   -4.132957
H       6.299188   -1.057049   -0.284897
H      -6.078616   -2.381216   -0.632971
H       6.894505   -1.007391    3.154142
H      -6.030655   -2.694548   -4.091796
