 14
HT C3 transoid MECI
C       0.864030    0.996109    0.769321
C      -0.735055   -1.237218    1.121078
C       3.119886   -0.023466    1.777426
C      -2.593890   -1.508875    3.037950
C       4.323713    1.241299    3.903313
C      -4.124984   -3.592653    3.304851
H       0.228462    2.822070    1.411642
H      -0.334680   -2.867217   -0.044475
H       3.873465   -1.743211    0.982831
H      -2.893121    0.082432    4.282021
H       3.195550    1.734662    5.520643
H      -3.915416   -5.222044    2.101000
H       6.009648    2.343633    3.587596
H      -5.611263   -3.637393    4.690571
