 14
CHD S0 minimum
C       0.632503    0.350735   -0.106893
C      -0.617618   -0.377655    0.108076
C       1.824653   -0.296564   -0.083944
C      -0.637091   -1.734438    0.080717
C       1.884662   -1.777699    0.230490
C       0.617569   -2.506872   -0.224538
H       0.593386    1.415398   -0.272134
H      -1.527050    0.179573    0.264389
H       2.745683    0.247423   -0.215266
H      -1.565517   -2.270125    0.196061
H       2.755006   -2.230663   -0.233357
H       0.580290   -3.504749    0.200404
H       2.008877   -1.896415    1.306266
H       0.667859   -2.662810   -1.335688
