 14
CHD C2 pyramidalization MECI
C       2.578093    0.073259   -0.097260
C       1.316276   -2.331651   -0.199566
C       1.400515    2.485436    0.186161
C      -1.299001   -2.364966   -0.326481
C      -1.400522    2.482247   -0.278366
C      -2.785021   -0.229947    0.623814
H       4.599054   -0.022303   -0.408511
H       2.404650   -3.932366   -0.832930
H       1.319344    1.519938    2.201378
H      -2.234128   -3.943700   -1.216552
H      -1.773194    2.826540   -2.269631
H      -2.599368   -0.054620    2.661528
H      -2.404992    3.899033    0.801457
H      -4.770885   -0.362390    0.135225
