 14
CHD C1 ring-closure MECI
C       0.424924   -0.739222    1.232221
C       0.403409    0.644220    1.134517
C      -0.198456   -1.446989    0.228192
C       0.059698    1.243780   -0.127865
C      -0.945605   -0.637656   -0.696068
C       0.422016    0.874852   -1.458121
H       0.873462   -1.235315    2.077587
H       0.492066    1.283294    1.994405
H      -0.022615   -2.485580    0.014913
H      -0.537602    2.146643   -0.072423
H      -1.797419   -0.054953   -0.298712
H       1.167927    0.127025   -1.653495
H      -1.105225   -0.965100   -1.710584
H       0.058369    1.469049   -2.276220
