 14
CHD C3 transoid MECI
C       0.977459    1.169168    1.209105
C      -0.773061   -0.827468    0.651084
C       3.048706   -0.473427    2.005478
C      -0.341287   -3.210720   -0.553625
C       4.351196   -1.982493    0.177920
C       2.122130   -4.422270   -0.362029
H       0.261439    2.462317    2.615151
H      -2.689113   -0.454328    1.254289
H       3.280314   -0.969382    3.975517
H      -1.538036   -3.645740   -2.142740
H       4.613418   -1.092366   -1.636189
H       2.471839   -5.512587    1.329359
H       6.004388   -2.972812    0.846059
H       2.707912   -5.517458   -1.997189
