 14
CHD C3 pyramidalization MECI
C       1.427930    0.048258    0.248456
C       0.705158   -1.211880   -0.180183
C       0.707247    1.243525   -0.029065
C      -0.647603   -1.243041   -0.216659
C      -0.797811    1.293245   -0.045092
C      -1.429062   -0.061422    0.325870
H       0.813245    0.152202    1.284182
H       1.297744   -2.056277   -0.490255
H       1.225990    2.167876   -0.256353
H      -1.182125   -2.108234   -0.574694
H      -1.044679    1.562640   -1.074582
H      -1.457322   -0.141712    1.413204
H      -1.198698    2.090146    0.577434
H      -2.461022   -0.085251   -0.006175
