 16
2-AmCHD S0 minimum
C       0.626629    0.338360   -0.147921
C      -0.613232   -0.389842    0.114466
C       1.827346   -0.298836   -0.104988
C      -0.648752   -1.746939    0.105610
C       1.883339   -1.763755    0.252752
C       0.594869   -2.519339   -0.252122
N       3.072357    0.349823   -0.205591
H       0.582139    1.401899   -0.326833
H      -1.509223    0.177815    0.307827
H      -1.566128   -2.277499    0.299164
H       2.763478   -2.238278   -0.170121
H       0.584806   -3.519567    0.167503
H       1.949055   -1.856344    1.333979
H       0.667355   -2.617344   -1.334413
H       2.994454    1.299577   -0.510082
H       3.716316   -0.134713   -0.796835
