 16
2-AmCHD C3 transoid MECI
C       0.955587    1.151305    1.194052
C      -0.783785   -0.834102    0.593666
C       3.030975   -0.512164    2.025660
C      -0.330586   -3.214236   -0.614878
C       4.274706   -2.014762    0.148378
C       2.132593   -4.395938   -0.281361
N       3.464261   -1.243449    4.602374
H       0.225002    2.454982    2.585274
H      -2.710359   -0.468186    1.171000
H      -1.464531   -3.653896   -2.245910
H       4.497486   -1.089585   -1.653387
H       2.416111   -5.396919    1.484402
H       5.951738   -2.963910    0.808355
H       2.755160   -5.597498   -1.825841
H       1.864100   -1.880028    5.391975
H       3.960249    0.293565    5.598778
