 16
2-AmCHD C4 transoid MECI
C      -0.599334   -0.429328    0.367293
C       1.288357    1.350965    1.129439
C      -0.107055   -2.849778   -0.698258
C       2.652922   -0.759842    2.318126
C       2.518828   -3.878260   -1.045458
C       4.393357   -2.243654    0.700664
N      -2.116347   -4.400866   -1.469827
H      -2.580457   -0.028671    0.713504
H       0.538338    2.805142    2.342571
H       2.138383   -1.528038    4.143371
H       2.611333   -5.805357   -0.355150
H       5.493789   -0.983122   -0.475963
H       3.098358   -3.892361   -3.022572
H       5.615528   -3.509933    1.747238
H      -1.613866   -5.714967   -2.730517
H      -3.627374   -3.450191   -2.094418
