 16
2-AmCHD C1 ring-closure MECI
C       0.363610   -0.753983    1.263800
C       0.401117    0.651042    1.154277
C      -0.287775   -1.447946    0.245003
C       0.109111    1.238477   -0.125152
C      -0.990844   -0.587872   -0.692115
C       0.470431    0.838407   -1.442379
N      -0.044982   -2.802788   -0.145410
H       0.803190   -1.272876    2.104272
H       0.417329    1.289079    2.021018
H      -0.440386    2.173147   -0.094612
H      -1.805594    0.012593   -0.321487
H       1.171360    0.046043   -1.628369
H      -1.130666   -0.952394   -1.695276
H       0.150275    1.442172   -2.271501
H      -0.675517   -3.443045    0.296173
H       0.889001   -3.101252    0.048599
