 16
2-AmCHD C5 pyramidalization MECI
C       0.691540   -1.251894   -0.182539
C       1.332799   -0.004575   -0.103750
C      -0.709119   -1.242839   -0.162386
C       0.779869    1.281774    0.330884
C      -1.470807   -0.010243    0.227090
C      -0.697702    1.292959   -0.135857
N      -1.411635   -2.326686   -0.493419
H       1.210124   -2.142999   -0.506303
H       2.372701   -0.041545   -0.421279
H       0.544581    0.812415    1.381266
H      -1.563814   -0.022350    1.311312
H      -0.737098    1.443916   -1.214613
H      -2.478718   -0.072055   -0.186974
H      -1.237349    2.120741    0.310278
H      -2.403634   -2.291209   -0.562471
H      -0.961306   -3.171041   -0.770805
