 16
2-AmCHD C4 pyramidalization MECI
C       0.702985   -1.204809   -0.221896
C       1.409115    0.044553    0.227954
C      -0.653973   -1.235649   -0.241773
C       0.715963    1.265309   -0.002152
C      -1.422741   -0.049283    0.313828
C      -0.790904    1.312877   -0.025484
N      -1.434479   -2.358463   -0.589664
H       1.289766   -2.056992   -0.527246
H       0.805381    0.132663    1.274517
H       1.244357    2.192108   -0.189151
H      -1.462653   -0.164101    1.396459
H      -1.034081    1.596098   -1.052358
H      -2.453108   -0.068048   -0.026096
H      -1.204934    2.094735    0.607190
H      -0.879818   -3.105329   -0.958960
H      -2.158407   -2.137777   -1.244697
