 16
2-AmCHD C3 transoid MECI
C       0.505675    0.609245    0.631865
C      -0.414761   -0.441388    0.314155
C       1.603923   -0.271026    1.071933
C      -0.174939   -1.700900   -0.325380
C       2.262077   -1.066166    0.078518
C       1.128520   -2.326230   -0.148890
N       1.833208   -0.658005    2.435471
H       0.119066    1.299121    1.368068
H      -1.434260   -0.247753    0.619667
H      -0.774996   -1.933558   -1.188484
H       2.379967   -0.576584   -0.874935
H       1.278551   -2.855926    0.785512
H       3.149524   -1.568434    0.427763
H       1.457968   -2.962069   -0.966194
H       0.986439   -0.994868    2.853310
H       2.095674    0.155348    2.962746
