 16
2-AmCHD C3 pyramidalization MECI
C       1.544594    0.138292    0.473343
C       0.840288   -1.089845    0.188579
C       0.707695    1.250589    0.056078
C      -0.462583   -1.128867   -0.258660
C      -0.718629    1.285756    0.488057
C      -1.337818    0.102580   -0.324561
N       1.085629    2.000861   -0.970637
H       1.965846    0.209670    1.502749
H       1.356320   -2.025185    0.356380
H      -0.915392   -2.071628   -0.520529
H      -1.233947    2.217064    0.272287
H      -2.331635   -0.112925    0.061336
H      -0.786635    1.080122    1.548363
H      -1.475907    0.449453   -1.348914
H       0.459120    2.617650   -1.441923
H       1.961707    1.790598   -1.400924
