 16
2-AmCHD C6 ring-closure MECI
C       0.642623    1.333723    2.077816
C       0.687951   -1.296440    2.272087
C       0.081520    2.593509   -0.297803
C      -0.382277   -2.864284    0.396381
C       0.410360    1.519506   -2.735316
C      -1.881992   -1.619907   -1.442599
N      -0.922632    4.926197   -0.118567
H       1.155756    2.508814    3.657622
H       1.580170   -2.132567    3.908267
H       0.386840   -4.711443    0.024925
H       1.990398    0.287367   -3.054053
H      -3.381170   -0.402201   -0.794693
H      -0.282534    2.571446   -4.337777
H      -2.256312   -2.517101   -3.234719
H      -1.282409    5.937619   -1.662330
H      -1.649016    5.525010    1.510217
