 16
2-AmCHD C4 pyramidalization MECI
C       1.328449   -2.276759   -0.419323
C       2.662842    0.084193    0.430771
C      -1.235830   -2.335038   -0.456885
C       1.352974    2.391087   -0.004067
C      -2.688590   -0.093132    0.593049
C      -1.494592    2.480977   -0.048158
N      -2.710772   -4.456849   -1.114303
H       2.437304   -3.887152   -0.996351
H       1.521950    0.250696    2.408487
H       2.351493    4.142483   -0.357443
H      -2.764013   -0.310105    2.638925
H      -1.954131    3.016188   -1.988669
H      -4.635702   -0.128593   -0.049314
H      -2.276995    3.958475    1.147423
H      -1.662615   -5.868221   -1.812172
H      -4.078797   -4.039812   -2.352136
