 15
3-CNHT C4 pyramidalization MECI
C      -1.090587   -1.183285   -0.049079
C       1.210185    0.158905   -0.033486
C      -2.510875   -1.566103   -2.366957
C       3.202081    0.209127    1.872046
C      -4.956177   -2.320232   -2.453941
C       5.369459   -1.152716    1.647370
C      -2.295513   -2.118215    2.283169
N      -3.124306   -2.899957    4.103230
H      -0.451322    1.358090    0.927493
H      -1.462244   -1.150854   -4.058304
H       3.011911    1.430560    3.496372
H      -6.040713   -2.683404   -0.771788
H       5.710466   -2.347046    0.035040
H      -5.887767   -2.590784   -4.240263
H       6.752719   -1.148694    3.137812
