 15
3-CNHT C4 transoid MECI
C      -0.358395   -0.681092    0.563638
C       0.464121    0.521165    0.362938
C      -1.338028   -0.808753    1.606688
C       1.660055   -0.003629    0.928426
C      -2.169335   -1.878175    1.794278
C       2.219559    0.644946    2.101980
C      -0.129393   -1.806487   -0.310366
N       0.050907   -2.692842   -0.999746
H       0.085560    1.461288    0.728344
H      -1.437744    0.048126    2.254180
H       2.118177   -0.874597    0.489418
H      -2.120540   -2.754598    1.171630
H       1.569706    0.904666    2.918426
H      -2.913769   -1.857422    2.569795
H       3.140653    1.198361    2.010790
