 15
3-CNHT C2 transoid MECI
C       0.660365    0.485243    0.243036
C      -0.617049   -0.218373    0.423603
C       1.775742   -0.181817   -0.318849
C      -1.819492    0.227795   -0.144212
C       2.713986    0.012779    0.795599
C      -3.006327   -0.488853   -0.121872
C       0.723555    1.893982    0.570014
N       0.707425    3.008215    0.797455
H      -0.569890   -1.197116    0.871083
H       1.626551   -1.148413   -0.765487
H      -1.825923    1.205731   -0.601985
H       2.706479   -0.671358    1.629633
H      -3.056603   -1.472134    0.315085
H       3.202787    0.959296    0.948640
H      -3.913809   -0.071525   -0.518849
