 15
3-CNHT C5 pyramidalization MECI
C      -1.154127   -0.865640   -0.007929
C       1.146801    0.390276    0.082417
C      -3.558341    0.448665    0.047216
C       3.575561   -0.594017   -0.278387
C      -5.882833   -0.623412   -0.028217
C       5.850963   -1.052160    0.923799
C      -1.094569   -3.580070   -0.165944
N      -0.933371   -5.725234   -0.259520
H       1.085897    2.425379    0.232547
H      -3.423926    2.481523    0.171418
H       3.718958   -2.793167    0.183980
H      -6.139791   -2.637875   -0.166193
H       5.987784   -1.630995    2.886686
H      -7.554895    0.530488    0.043854
H       7.592945   -1.168750   -0.136429
