 15
3-CNHT C2 pyramidalization MECI
C       0.629391    0.325223   -0.013341
C      -0.576168   -0.349097    0.010566
C       1.925526   -0.232216   -0.263443
C      -1.880889    0.263158    0.016458
C       2.993640   -0.661912    0.530633
C      -3.041030   -0.442594    0.037169
C       0.631504    1.777901    0.043700
N       0.648742    2.911562    0.121123
H      -0.536336   -1.428475   -0.012786
H       1.841285   -1.405051   -0.090868
H      -1.928763    1.340846    0.014648
H       2.875017   -1.084191    1.524705
H      -3.046996   -1.520917    0.034666
H       3.980085   -0.768621    0.104279
H      -3.995207    0.054055    0.054325
